Circuit: * C:\Users\Manuel\Desktop\Nixie-Clock\Hardware\HV Simulation\Draft1.asc

Direct Newton iteration for .op point succeeded.

Date: Thu May 27 16:14:04 2021
Total elapsed time: 0.109 seconds.

tnom = 27
temp = 27
method = modified trap
totiter = 2090
traniter = 2082
tranpoints = 1042
accept = 1042
rejected = 0
matrix size = 3
fillins = 0
solver = Normal
Matrix Compiler1:       3 opcodes  0.1/[0.1]/0.1
Matrix Compiler2:      15 opcodes  0.1/[0.1]/0.1

